OPT_V8/Brussels_test_1203-1157/powerflow_results_t1.txt
Pandapower Network Debug Info
==================================================

BUS:
       vm_pu  va_degree      p_mw    q_mvar
0   0.992072   0.108967  0.001191  0.001052
1   0.987100   0.178557  0.001787  0.002105
2   0.982639   0.247976  0.002383  0.003157
3   0.987840   0.182627  0.002978  0.004209
4   0.988077   0.211277  0.003574  0.005262
5   0.990860   0.135417  0.004170  0.006314
6   0.988879   0.132241  0.001430  0.001052
7   0.997183   0.017581  0.002144  0.002105
8   0.997535   0.036228  0.002621  0.003157
9   0.999871   0.000379  0.011913  0.010523
10  0.999856   0.000373  0.013105  0.009471
11  0.999844   0.000385  0.014296  0.011576
12  0.999742   0.000714  0.011913  0.006314
13  0.999711   0.000753  0.014296  0.010523
14  0.999722   0.000771  0.015487  0.012628
15  0.999920   0.000339  0.000000  0.000000
16  0.999920   0.000345  0.000000  0.000000
17  0.999748   0.000773  0.000000  0.000000
18  0.999748   0.000783  0.000000  0.000000
19  1.000000   0.000000 -0.047827 -0.047212
20  1.000000   0.000006  0.000000  0.000000
21  1.000000   0.000000 -0.055818 -0.052480
22  1.000000   0.000007  0.000000  0.000000
--------------------------------------------------

LINE:
    p_from_mw  q_from_mvar   p_to_mw  q_to_mvar         pl_mw       ql_mvar  i_from_ka   i_to_ka      i_ka  vm_from_pu  va_from_degree  vm_to_pu  va_to_degree  loading_percent
0    0.047817     0.043212 -0.047813  -0.043209  4.062965e-06  3.167961e-06   0.002481  0.002481  0.002481    1.000000        0.000006  0.999920      0.000339         1.078556
1    0.055808     0.048480 -0.055793  -0.048469  1.469956e-05  1.146149e-05   0.002845  0.002845  0.002845    1.000000        0.000007  0.999748      0.000773         1.237106
2    0.039317     0.031572 -0.039315  -0.031570  1.966442e-06  1.533267e-06   0.001941  0.001941  0.001941    0.999920        0.000339  0.999871      0.000379         0.843902
3    0.011913     0.006314 -0.011913  -0.006314  6.290121e-08  4.904511e-08   0.000519  0.000519  0.000519    0.999748        0.000773  0.999742      0.000714         0.225696
4    0.029784     0.023152 -0.029784  -0.023151  7.785434e-07  6.070431e-07   0.001452  0.001452  0.001452    0.999748        0.000773  0.999722      0.000771         0.631466
5    0.008486     0.010638 -0.008400  -0.010570  8.662697e-05  6.754447e-05   0.019643  0.019643  0.019643    0.999920        0.000345  0.992072      0.108967         8.540531
6    0.005670     0.007421 -0.005602  -0.007368  6.770174e-05  5.278817e-05   0.013483  0.013483  0.013483    0.999748        0.000783  0.990860      0.135417         5.862350
7    0.002151     0.002109 -0.002144  -0.002105  6.133898e-06  4.782701e-06   0.004349  0.004349  0.004349    0.999748        0.000783  0.997183      0.017581         1.890918
8    0.006265     0.008473 -0.006245  -0.008458  1.910011e-05  1.489267e-05   0.015213  0.015213  0.015213    0.999748        0.000783  0.997535      0.036228         6.614305
9   -0.027401    -0.021046  0.027401   0.021047  4.129521e-07  3.219856e-07   0.001330  0.001330  0.001330    0.999856        0.000373  0.999871      0.000379         0.578287
10  -0.014296    -0.011576  0.014296   0.011576  1.655375e-07  1.290723e-07   0.000708  0.000708  0.000708    0.999844        0.000385  0.999856      0.000373         0.307882
11   0.014296     0.010523 -0.014296  -0.010523  1.542019e-07  1.202337e-07   0.000683  0.000683  0.000683    0.999722        0.000771  0.999711      0.000753         0.297154
12  -0.004184    -0.005273  0.004212   0.005294  2.751392e-05  2.145305e-05   0.009843  0.009843  0.009843    0.987100        0.178557  0.992072      0.108967         4.279613
13  -0.002978    -0.004209  0.002997   0.004223  1.819253e-05  1.418501e-05   0.007534  0.007534  0.007534    0.987840        0.182627  0.992072      0.108967         3.275763
14  -0.002383    -0.003157  0.002397   0.003168  1.465550e-05  1.142713e-05   0.005810  0.005810  0.005810    0.982639        0.247976  0.987100      0.178557         2.525951
15   0.003624     0.005301 -0.003574  -0.005262  5.042268e-05  3.931540e-05   0.009292  0.009292  0.009292    0.997535        0.036228  0.988077      0.211277         4.039830
16  -0.001430    -0.001052  0.001432   0.001055  2.805520e-06  2.187510e-06   0.002591  0.002591  0.002591    0.988879        0.132241  0.990860      0.135417         1.126532
--------------------------------------------------

TRAFO:
    p_hv_mw  q_hv_mvar   p_lv_mw  q_lv_mvar    pl_mw   ql_mvar   i_hv_ka   i_lv_ka  vm_hv_pu  va_hv_degree  vm_lv_pu  va_lv_degree  loading_percent
0  0.008496   0.011638 -0.008486  -0.010638  0.00001  0.001000  0.000555  0.019643  0.999920      0.000339  0.999920      0.000345         0.144102
1  0.014095   0.019003 -0.014085  -0.018003  0.00001  0.000999  0.000911  0.033002  0.999748      0.000773  0.999748      0.000783         0.236655
2  0.047827   0.047212 -0.047817  -0.043212  0.00001  0.004000  0.000554  0.002481  1.000000      0.000000  1.000000      0.000006         0.168011
3  0.055818   0.052480 -0.055808  -0.048480  0.00001  0.004000  0.000632  0.002845  1.000000      0.000000  1.000000      0.000007         0.191536
--------------------------------------------------
